/*--------------------------------*- C++ -*----------------------------------*\
| =========                 |                                                 |
| \\      /  F ield         | OpenFOAM: The Open Source CFD Toolbox           |
|  \\    /   O peration     | Version:  v2412                                 |
|   \\  /    A nd           | Website:  www.openfoam.com                      |
|    \\/     M anipulation  |                                                 |
\*---------------------------------------------------------------------------*/
FoamFile
{
    version     2.0;
    format      ascii;
    class       dictionary;
    object      speciesDict;
}
// * * * * * * * * * * * * * * * * * * * * * * * * * * * * * * * * * * * * * //

species
(
    N2
    O2
);

N2
{
    elements
    {
        N 2;
    }

    specie
    {
        molWeight       28.01348; // g.m^(-3)
        type            molecular;
    }
    thermodynamics
    {
    TAbsLow            200; // K
    TAbsHigh           30000; // K
    TFirstInt          1000; // K
    TSecondInt         6000; // K
    ThetaVibrational   3395; // K
    highCpCoeffs
    (
        0.0
        0.0
        3.5
        0.0
        0.0
        0.0
        0.0
        -1.04352e+03
        0.0
    );
    midCpCoeffs
    (
        0.0
        0.0
        3.5
        0.0
        0.0
        0.0
        0.0
        -1.04352e+03
        0.0
    );
    lowCpCoeffs
    (
        0.0
        0.0
        3.5
        0.0
        0.0
        0.0
        0.0
        -1.04352e+03
        0.0
    );
    }
    // M. Lalande, N. Dellinger, Y. Prevereaud, N. Bartoli, and J-M. Lamet, "Blottner’s Coefficients and Prandtl Number for Charring Materials Atmospheric Entry Simulations", AIAA Journal, 63(8), 2025.
    transport // Valid 200-30000 K
    {
        AB              2.7321e-02;
        BB              2.4321e-01;
        CB              -1.0805e+01;
        //Pr            0.7020; // Valid 200-10000 K
    }

    dissociationPotential   3.36e7;
}


O2
{
    elements
    {
        O 2;
    }

    specie
    {
        molWeight       31.9988; // g.m^(-3)
        type            molecular;
    }
    // B. J. McBride, M. J. Zehe, and S. Gordon, "NASA Glenn Coefficients for Calculating Thermodynamic Properties of Individual Species", NASA/TP-2002-211556, 2002.
    thermodynamics
    {
        TAbsLow            200; // K
        TAbsHigh           30000; // K
        TFirstInt          1000; // K
        TSecondInt         6000; // K
        ThetaVibrational   2239; // K
        highCpCoeffs
        (
            0.0
            0.0
            3.5
            0.0
            0.0
            0.0
            0.0
            -1.04352e+03
            0.0
        );
        midCpCoeffs
        (
            0.0
            0.0
            3.5
            0.0
            0.0
            0.0
            0.0
            -1.04352e+03
            0.0
        );
        lowCpCoeffs
        (
            0.0
            0.0
            3.5
            0.0
            0.0
            0.0
            0.0
            -1.04352e+03
            0.0
        );
    }
    // M. Lalande, N. Dellinger, Y. Prevereaud, N. Bartoli, and J-M. Lamet, "Blottner’s Coefficients and Prandtl Number for Charring Materials Atmospheric Entry Simulations", AIAA Journal, 63(8), 2025.
    transport // Valid 200-30000 K
    {
        AB              2.6757e-02;
        BB              2.5401e-01;
        CB              -1.0711e+01;
        //Pr            0.7051; // Valid 200-10000 K
    }

    dissociationPotential   1.54e7;
}


// N
/*N
{
    elements
    {
        N 1;
    }

    specie
    {
        molWeight       14.0067; // g.m^(-3)
        type            atomic;
    }
    // B. J. McBride, M. J. Zehe, and S. Gordon, "NASA Glenn Coefficients for Calculating Thermodynamic Properties of Individual Species", NASA/TP-2002-211556, 2002.
    thermodynamics
    {
        TAbsLow            200; // K
        TAbsHigh           30000; // K
        TFirstInt          1000; // K
        TSecondInt         6000; // K
        ThetaVibrational   0; // K
        highCpCoeffs
        (
            0.000000000e+00 
            0.000000000e+00
            2.500000000e+00
            0.000000000e+00
            0.000000000e+00
            0.000000000e+00
            0.000000000e+00
            5.610463780e+04
            0.000000000e+00
        );
        midCpCoeffs
        (
            0.000000000e+00 
            0.000000000e+00
            2.500000000e+00
            0.000000000e+00
            0.000000000e+00
            0.000000000e+00
            0.000000000e+00
            5.610463780e+04
            0.000000000e+00
        );
        lowCpCoeffs
        (
            0.000000000e+00 
            0.000000000e+00
            2.500000000e+00
            0.000000000e+00
            0.000000000e+00
            0.000000000e+00
            0.000000000e+00
            5.610463780e+04
            0.000000000e+00
        );
    }
    // M. Lalande, N. Dellinger, Y. Prevereaud, N. Bartoli, and J-M. Lamet, "Blottner’s Coefficients and Prandtl Number for Charring Materials Atmospheric Entry Simulations", AIAA Journal, 63(8), 2025.
    transport // Valid 200-30000 K
    {
        AB              2.4768e-02;
        BB              2.8672e-01;
        CB              -1.0976e+01;
        //Pr            0.8133; // Valid 200-10000 K
    }
}
/*
// O
mixture
{
    elements
    {
        O 1;
    }

    specie
    {
        molWeight       15.9994; // g.m^(-3)
        type            atomic;
    }
    // B. J. McBride, M. J. Zehe, and S. Gordon, "NASA Glenn Coefficients for Calculating Thermodynamic Properties of Individual Species", NASA/TP-2002-211556, 2002.
    thermodynamics
    {
        TAbsLow            200; // K
        TAbsHigh           30000; // K
        TFirstInt          1000; // K
        TSecondInt         6000; // K
        ThetaVibrational   0; // K
        highCpCoeffs
        (
            1.779004264e+08
            -1.082328257e+05
            2.810778365e+01
            -2.975232262e-03
            1.854997534e-07
            -5.796231540e-12
            7.191720164e-17
            8.890942630e+05
            -2.181728151e+02
        );
        midCpCoeffs
        (
            2.619020262e+05
            -7.298722030e+02
            3.317177270e+00
            -4.281334360e-04
            1.036104594e-07
            -9.438304330e-12
            2.725038297e-16
            3.392428060e+04
            -6.679585350e-01
        );
        lowCpCoeffs
        (
            -7.953611300e+03
            1.607177787e+02
            1.966226438e+00
            1.013670310e-03
            -1.110415423e-06
            6.517507500e-10
            -1.584779251e-13
            2.840362437e+04
            8.404241820e+00
        );
    }
    // M. Lalande, N. Dellinger, Y. Prevereaud, N. Bartoli, and J-M. Lamet, "Blottner’s Coefficients and Prandtl Number for Charring Materials Atmospheric Entry Simulations", AIAA Journal, 63(8), 2025.
    transport // Valid 200-30000 K
    {
        AB              2.7230e-02;
        BB              2.3976e-01;
        CB              -1.0383e+01;
        //Pr            0.7053; // Valid 200-10000 K
    }
}*/
/*
// NO
mixture
{
    elements
    {
        N 1;
        O 1;
    }
    specie
    {
        molWeight       30.0061; // g.m^(-3)
        type            molecular;
    }
    // B. J. McBride, M. J. Zehe, and S. Gordon, "NASA Glenn Coefficients for Calculating Thermodynamic Properties of Individual Species", NASA/TP-2002-211556, 2002.
    thermodynamics
    {
        TAbsLow            200; // K
        TAbsHigh           30000; // K
        TFirstInt          1000; // K
        TSecondInt         6000; // K
        ThetaVibrational   2719; // K
        highCpCoeffs
        (
            -9.575303540e+08
            5.912434480e+05
            -1.384566826e+02
            1.694339403e-02
            -1.007351096e-06
            2.912584076e-11
            -3.295109350e-16
            -4.677501240e+06
            1.242081216e+03
        );
        midCpCoeffs
        (
            2.239018716e+05
            -1.289651623e+03
            5.433936030e+00
            -3.656034900e-04
            9.880966450e-08
            -1.416076856e-11
            9.380184620e-16
            1.750317656e+04
            -8.501669090e+00
        );
        lowCpCoeffs
        (
            -1.143916503e+04
            1.536467592e+02
            3.431468730e+00
            -2.668592368e-03
            8.481399120e-06
            -7.685111050e-09
            2.386797655e-12
            9.098214410e+03
            6.728725490e+00
        );
    }
    // M. Lalande, N. Dellinger, Y. Prevereaud, N. Bartoli, and J-M. Lamet, "Blottner’s Coefficients and Prandtl Number for Charring Materials Atmospheric Entry Simulations", AIAA Journal, 63(8), 2025.
    transport // Valid 200-30000 K
    {
        AB              2.7227e-02;
        BB              2.4463e-01;
        CB              -1.0776e+01;
        //Pr            0.7132; // Valid 200-10000 K
    }

    dissociationPotential   2.09e7;
}*/

KnabVVCoefficients
{
    // Fallback for any pair not explicitly listed
    default
    {
        sigma12     1.5e-18;   // m²
        P21         0.01;
    }

    // Species-pair specific overrides (name1_name2 or name2_name1, both checked)
    N2_O2
    {
        sigma12     2.667e-19;
        P21         0.01;
    }

    N2_NO
    {
        sigma12     2.751e-19;
        P21         0.01;
    }

    O2_NO
    {
        sigma12     2.686e-19;
        P21         0.01;
    }
}

// ************************************************************************* //
