/*--------------------------------*- C++ -*----------------------------------*\
| =========                 |                                                 |
| \\      /  F ield         | OpenFOAM: The Open Source CFD Toolbox           |
|  \\    /   O peration     | Version:  v2412                                 |
|   \\  /    A nd           | Website:  www.openfoam.com                      |
|    \\/     M anipulation  |                                                 |
\*---------------------------------------------------------------------------*/
FoamFile
{
    version     2.0;
    format      ascii;
    class       volVectorField;
    object      U;
}
// * * * * * * * * * * * * * * * * * * * * * * * * * * * * * * * * * * * * * //

#include "initialConditions"

dimensions      [0 1 -1 0 0 0 0];

internalField   uniform $velocityValue;

boundaryField
{
    top
    {
        type            fixedValue;
        value           uniform $velocityValue;
    }

    inlet
    {
        type            fixedValue;
        value           uniform $velocityValue;
    }

    outlet
    {
        type            zeroGradient;
    }

    bottom
    {
        type            symmetryPlane;
    }

    frontAndBack
    {
        type            empty;
    }
}


// ************************************************************************* //
