/*--------------------------------*- C++ -*----------------------------------*\
| =========                 |                                                 |
| \\      /  F ield         | OpenFOAM: The Open Source CFD Toolbox           |
|  \\    /   O peration     | Version:  v2412                                 |
|   \\  /    A nd           | Website:  www.openfoam.com                      |
|    \\/     M anipulation  |                                                 |
\*---------------------------------------------------------------------------*/
FoamFile
{
    version     2.0;
    format      ascii;
    class       dictionary;
    object      thermophysicalProperties;
}
// * * * * * * * * * * * * * * * * * * * * * * * * * * * * * * * * * * * * * //

thermoType
{
    type            heNeThermo;
    mixture         pureMixture;
    transport       blottnerEucken;
    thermo          hConst;
    equationOfState perfectGas;
    specie          specie;
    energy          sensibleInternalEnergy;
}

mixture
{
    // normalised gas
    specie
    {
        molWeight       11640.3;
    }
    thermodynamics
    {
        Cp              2.5;
        Hf              0;
    }
    transport
    {
        AB              2.7321e-02;
        BB              2.4321e-01;
        CB              -1.0805e+01;
    }
}


// ************************************************************************* //
